case906.m
function mpc = case906
%   case69open.m:  Power flow data for 69 bus with 68 transmission lines.
%   Please see CASEFORMAT for details on the case file format.
%
%   Made by Tao Ding, Tsinghua University (Also a visiting scholar of The
%   University of Tennessee, Knoxville).

%   Thanks to the help of Linquan Bai and Xue Li, who are the Ph.D. student
%   of The University of Tennessee, Knoxville
%   2014/03/10

%% MATPOWER Case Format : Version 2
mpc.version = '2';

%%-----  Power Flow Data  -----%%
%% system MVA base
mpc.baseMVA = 100;

%% bus data
%	bus_i	type	Pd	Qd	Gs	Bs	area	Vm	Va	baseKV	zone	Vmax	Vmin
mpc.bus = [
1	3	0	0	0	0	1	1.05	0	10	1	1.1	0.9
2	1	0	0	0	0	1	1	0	10	1	1.1	0.9
3	1	0	0	0	0	1	1	0	10	1	1.1	0.9
4	1	0	0	0	0	1	1	0	10	1	1.1	0.9
5	1	0	0	0	0	1	1	0	10	1	1.1	0.9
6	1	0	0	0	0	1	1	0	10	1	1.1	0.9
7	1	0	0	0	0	1	1	0	10	1	1.1	0.9
8	1	3.89	-0.974834	0	0	1	1	0	10	1	1.1	0.9
9	1	0	0	0	0	1	1	0	10	1	1.1	0.9
10	1	10.17	-2.548602	0	0	1	1	0	10	1	1.1	0.9
11	1	0	0	0	0	1	1	0	10	1	1.1	0.9
12	1	5.84	-1.463504	0	0	1	1	0	10	1	1.1	0.9
13	1	0	0	0	0	1	1	0	10	1	1.1	0.9
14	1	9.73	-2.438338	0	0	1	1	0	10	1	1.1	0.9
15	1	0	0	0	0	1	1	0	10	1	1.1	0.9
16	1	5.84	-1.463504	0	0	1	1	0	10	1	1.1	0.9
17	1	0	0	0	0	1	1	0	10	1	1.1	0.9
18	1	0	0	0	0	1	1	0	10	1	1.1	0.9
19	1	0	0	0	0	1	1	0	10	1	1.1	0.9
20	1	9.73	-2.438338	0	0	1	1	0	10	1	1.1	0.9
21	1	0	0	0	0	1	1	0	10	1	1.1	0.9
22	1	0	0	0	0	1	1	0	10	1	1.1	0.9
23	1	0	0	0	0	1	1	0	10	1	1.1	0.9
24	1	0	0	0	0	1	1	0	10	1	1.1	0.9
25	1	0	0	0	0	1	1	0	10	1	1.1	0.9
26	1	9.73	-2.438338	0	0	1	1	0	10	1	1.1	0.9
27	1	0	0	0	0	1	1	0	10	1	1.1	0.9
28	1	0	0	0	0	1	1	0	10	1	1.1	0.9
29	1	0	0	0	0	1	1	0	10	1	1.1	0.9
30	1	0	0	0	0	1	1	0	10	1	1.1	0.9
31	1	0	0	0	0	1	1	0	10	1	1.1	0.9
32	1	0	0	0	0	1	1	0	10	1	1.1	0.9
33	1	0	0	0	0	1	1	0	10	1	1.1	0.9
34	1	0	0	0	0	1	1	0	10	1	1.1	0.9
35	1	0	0	0	0	1	1	0	10	1	1.1	0.9
36	1	0	0	0	0	1	1	0	10	1	1.1	0.9
37	1	0	0	0	0	1	1	0	10	1	1.1	0.9
38	1	0	0	0	0	1	1	0	10	1	1.1	0.9
39	1	0	0	0	0	1	1	0	10	1	1.1	0.9
40	1	0	0	0	0	1	1	0	10	1	1.1	0.9
41	1	0	0	0	0	1	1	0	10	1	1.1	0.9
42	1	0	0	0	0	1	1	0	10	1	1.1	0.9
43	1	0	0	0	0	1	1	0	10	1	1.1	0.9
44	1	5.32	-1.333192	0	0	1	1	0	10	1	1.1	0.9
45	1	0	0	0	0	1	1	0	10	1	1.1	0.9
46	1	0	0	0	0	1	1	0	10	1	1.1	0.9
47	1	0	0	0	0	1	1	0	10	1	1.1	0.9
48	1	0	0	0	0	1	1	0	10	1	1.1	0.9
49	1	0	0	0	0	1	1	0	10	1	1.1	0.9
50	1	0	0	0	0	1	1	0	10	1	1.1	0.9
51	1	0	0	0	0	1	1	0	10	1	1.1	0.9
52	1	0	0	0	0	1	1	0	10	1	1.1	0.9
53	1	0	0	0	0	1	1	0	10	1	1.1	0.9
54	1	0	0	0	0	1	1	0	10	1	1.1	0.9
55	1	6.1	-1.52866	0	0	1	1	0	10	1	1.1	0.9
56	1	10.17	-2.548602	0	0	1	1	0	10	1	1.1	0.9
57	1	13.3	-3.33298	0	0	1	1	0	10	1	1.1	0.9
58	1	13.3	-3.33298	0	0	1	1	0	10	1	1.1	0.9
59	1	0	0	0	0	1	1	0	10	1	1.1	0.9
60	1	0	0	0	0	1	1	0	10	1	1.1	0.9
61	1	0	0	0	0	1	1	0	10	1	1.1	0.9
62	1	0	0	0	0	1	1	0	10	1	1.1	0.9
63	1	0	0	0	0	1	1	0	10	1	1.1	0.9
64	1	9.73	-2.438338	0	0	1	1	0	10	1	1.1	0.9
65	1	0	0	0	0	1	1	0	10	1	1.1	0.9
66	1	0	0	0	0	1	1	0	10	1	1.1	0.9
67	1	0	0	0	0	1	1	0	10	1	1.1	0.9
68	1	0	0	0	0	1	1	0	10	1	1.1	0.9
69	1	0	0	0	0	1	1	0	10	1	1.1	0.9
70	1	3.89	-0.974834	0	0	1	1	0	10	1	1.1	0.9
71	1	8.87	-2.222822	0	0	1	1	0	10	1	1.1	0.9
72	1	13.3	-3.33298	0	0	1	1	0	10	1	1.1	0.9
73	1	0	0	0	0	1	1	0	10	1	1.1	0.9
74	1	0	0	0	0	1	1	0	10	1	1.1	0.9
75	1	0	0	0	0	1	1	0	10	1	1.1	0.9
76	1	8.87	-2.222822	0	0	1	1	0	10	1	1.1	0.9
77	1	10.17	-2.548602	0	0	1	1	0	10	1	1.1	0.9
78	1	10.17	-2.548602	0	0	1	1	0	10	1	1.1	0.9
79	1	0	0	0	0	1	1	0	10	1	1.1	0.9
80	1	0	0	0	0	1	1	0	10	1	1.1	0.9
81	1	0	0	0	0	1	1	0	10	1	1.1	0.9
82	1	0	0	0	0	1	1	0	10	1	1.1	0.9
83	1	0	0	0	0	1	1	0	10	1	1.1	0.9
84	1	0	0	0	0	1	1	0	10	1	1.1	0.9
85	1	0	0	0	0	1	1	0	10	1	1.1	0.9
86	1	0	0	0	0	1	1	0	10	1	1.1	0.9
87	1	10.17	-2.548602	0	0	1	1	0	10	1	1.1	0.9
88	1	0	0	0	0	1	1	0	10	1	1.1	0.9
89	1	0	0	0	0	1	1	0	10	1	1.1	0.9
90	1	0	0	0	0	1	1	0	10	1	1.1	0.9
91	1	0	0	0	0	1	1	0	10	1	1.1	0.9
92	1	8.87	-2.222822	0	0	1	1	0	10	1	1.1	0.9
93	1	0	0	0	0	1	1	0	10	1	1.1	0.9
94	1	13.3	-3.33298	0	0	1	1	0	10	1	1.1	0.9
95	1	0	0	0	0	1	1	0	10	1	1.1	0.9
96	1	0	0	0	0	1	1	0	10	1	1.1	0.9
97	1	6.1	-1.52866	0	0	1	1	0	10	1	1.1	0.9
98	1	0	0	0	0	1	1	0	10	1	1.1	0.9
99	1	0	0	0	0	1	1	0	10	1	1.1	0.9
100	1	0	0	0	0	1	1	0	10	1	1.1	0.9
101	1	0	0	0	0	1	1	0	10	1	1.1	0.9
102	1	5.32	-1.333192	0	0	1	1	0	10	1	1.1	0.9
103	1	4.07	-1.019942	0	0	1	1	0	10	1	1.1	0.9
104	1	10.17	-2.548602	0	0	1	1	0	10	1	1.1	0.9
105	1	0	0	0	0	1	1	0	10	1	1.1	0.9
106	1	0	0	0	0	1	1	0	10	1	1.1	0.9
107	1	0	0	0	0	1	1	0	10	1	1.1	0.9
108	1	9.73	-2.438338	0	0	1	1	0	10	1	1.1	0.9
109	1	0	0	0	0	1	1	0	10	1	1.1	0.9
110	1	0	0	0	0	1	1	0	10	1	1.1	0.9
111	1	0	0	0	0	1	1	0	10	1	1.1	0.9
112	1	0	0	0	0	1	1	0	10	1	1.1	0.9
113	1	0	0	0	0	1	1	0	10	1	1.1	0.9
114	1	0	0	0	0	1	1	0	10	1	1.1	0.9
115	1	0	0	0	0	1	1	0	10	1	1.1	0.9
116	1	9.73	-2.438338	0	0	1	1	0	10	1	1.1	0.9
117	1	8.87	-2.222822	0	0	1	1	0	10	1	1.1	0.9
118	1	8.87	-2.222822	0	0	1	1	0	10	1	1.1	0.9
119	1	0	0	0	0	1	1	0	10	1	1.1	0.9
120	1	0	0	0	0	1	1	0	10	1	1.1	0.9
121	1	0	0	0	0	1	1	0	10	1	1.1	0.9
122	1	0	0	0	0	1	1	0	10	1	1.1	0.9
123	1	0	0	0	0	1	1	0	10	1	1.1	0.9
124	1	0	0	0	0	1	1	0	10	1	1.1	0.9
125	1	14.59	-3.656254	0	0	1	1	0	10	1	1.1	0.9
126	1	0	0	0	0	1	1	0	10	1	1.1	0.9
127	1	0	0	0	0	1	1	0	10	1	1.1	0.9
128	1	10.17	-2.548602	0	0	1	1	0	10	1	1.1	0.9
129	1	0	0	0	0	1	1	0	10	1	1.1	0.9
130	1	0	0	0	0	1	1	0	10	1	1.1	0.9
131	1	0	0	0	0	1	1	0	10	1	1.1	0.9
132	1	0	0	0	0	1	1	0	10	1	1.1	0.9
133	1	10.17	-2.548602	0	0	1	1	0	10	1	1.1	0.9
134	1	0	0	0	0	1	1	0	10	1	1.1	0.9
135	1	0	0	0	0	1	1	0	10	1	1.1	0.9
136	1	0	0	0	0	1	1	0	10	1	1.1	0.9
137	1	0	0	0	0	1	1	0	10	1	1.1	0.9
138	1	6.1	-1.52866	0	0	1	1	0	10	1	1.1	0.9
139	1	0	0	0	0	1	1	0	10	1	1.1	0.9
140	1	0	0	0	0	1	1	0	10	1	1.1	0.9
141	1	0	0	0	0	1	1	0	10	1	1.1	0.9
142	1	0	0	0	0	1	1	0	10	1	1.1	0.9
143	1	0	0	0	0	1	1	0	10	1	1.1	0.9
144	1	0	0	0	0	1	1	0	10	1	1.1	0.9
145	1	0	0	0	0	1	1	0	10	1	1.1	0.9
146	1	29.18	-7.312508	0	0	1	1	0	10	1	1.1	0.9
147	1	0	0	0	0	1	1	0	10	1	1.1	0.9
148	2	0	0	0	0	1	1	0	10	1	1.1	0.9
149	1	0	0	0	0	1	1	0	10	1	1.1	0.9
150	1	8.87	-2.222822	0	0	1	1	0	10	1	1.1	0.9
151	1	9.73	-2.438338	0	0	1	1	0	10	1	1.1	0.9
152	1	10.17	-2.548602	0	0	1	1	0	10	1	1.1	0.9
153	1	0	0	0	0	1	1	0	10	1	1.1	0.9
154	1	0	0	0	0	1	1	0	10	1	1.1	0.9
155	1	0	0	0	0	1	1	0	10	1	1.1	0.9
156	1	0	0	0	0	1	1	0	10	1	1.1	0.9
157	1	0	0	0	0	1	1	0	10	1	1.1	0.9
158	1	0	0	0	0	1	1	0	10	1	1.1	0.9
159	1	3.89	-0.974834	0	0	1	1	0	10	1	1.1	0.9
160	1	0	0	0	0	1	1	0	10	1	1.1	0.9
161	1	0	0	0	0	1	1	0	10	1	1.1	0.9
162	1	0	0	0	0	1	1	0	10	1	1.1	0.9
163	1	5.32	-1.333192	0	0	1	1	0	10	1	1.1	0.9
164	1	8.87	-2.222822	0	0	1	1	0	10	1	1.1	0.9
165	1	0	0	0	0	1	1	0	10	1	1.1	0.9
166	1	0	0	0	0	1	1	0	10	1	1.1	0.9
167	1	0	0	0	0	1	1	0	10	1	1.1	0.9
168	1	0	0	0	0	1	1	0	10	1	1.1	0.9
169	1	0	0	0	0	1	1	0	10	1	1.1	0.9
170	1	0	0	0	0	1	1	0	10	1	1.1	0.9
171	1	0	0	0	0	1	1	0	10	1	1.1	0.9
172	1	0	0	0	0	1	1	0	10	1	1.1	0.9
173	1	0	0	0	0	1	1	0	10	1	1.1	0.9
174	1	0	0	0	0	1	1	0	10	1	1.1	0.9
175	1	0	0	0	0	1	1	0	10	1	1.1	0.9
176	1	0	0	0	0	1	1	0	10	1	1.1	0.9
177	1	0	0	0	0	1	1	0	10	1	1.1	0.9
178	1	0	0	0	0	1	1	0	10	1	1.1	0.9
179	1	0	0	0	0	1	1	0	10	1	1.1	0.9
180	1	6.1	-1.52866	0	0	1	1	0	10	1	1.1	0.9
181	1	0	0	0	0	1	1	0	10	1	1.1	0.9
182	1	0	0	0	0	1	1	0	10	1	1.1	0.9
183	1	0	0	0	0	1	1	0	10	1	1.1	0.9
184	1	5.84	-1.463504	0	0	1	1	0	10	1	1.1	0.9
185	1	0	0	0	0	1	1	0	10	1	1.1	0.9
186	1	0	0	0	0	1	1	0	10	1	1.1	0.9
187	1	14.59	-3.656254	0	0	1	1	0	10	1	1.1	0.9
188	1	0	0	0	0	1	1	0	10	1	1.1	0.9
189	1	0	0	0	0	1	1	0	10	1	1.1	0.9
190	1	0	0	0	0	1	1	0	10	1	1.1	0.9
191	1	5.32	-1.333192	0	0	1	1	0	10	1	1.1	0.9
192	1	0	0	0	0	1	1	0	10	1	1.1	0.9
193	1	0	0	0	0	1	1	0	10	1	1.1	0.9
194	1	0	0	0	0	1	1	0	10	1	1.1	0.9
195	1	0	0	0	0	1	1	0	10	1	1.1	0.9
196	1	0	0	0	0	1	1	0	10	1	1.1	0.9
197	2	0	0	0	0	1	1	0	10	1	1.1	0.9
198	1	0	0	0	0	1	1	0	10	1	1.1	0.9
199	1	0	0	0	0	1	1	0	10	1	1.1	0.9
200	1	0	0	0	0	1	1	0	10	1	1.1	0.9
...
];

%% generator data
%	bus	Pg	Qg	Qmax	Qmin	Vg	mBase	status	Pmax	Pmin	Pc1	Pc2	Qc1min	Qc1max	Qc2min	Qc2max	ramp_agc	ramp_10	ramp_30	ramp_q	apf
mpc.gen = [
148	0	0	300	-300	1	100	1	250	10	0	0	0	0	0	0	0	0	0	0	0
197	0	0	300	-300	1	100	1	250	10	0	0	0	0	0	0	0	0	0	0	0
467	0	0	300	-300	1	100	1	250	10	0	0	0	0	0	0	0	0	0	0	0
532	0	0	300	-300	1	100	1	250	10	0	0	0	0	0	0	0	0	0	0	0
557	0	0	300	-300	1	100	1	250	10	0	0	0	0	0	0	0	0	0	0	0
609	0	0	300	-300	1	100	1	250	10	0	0	0	0	0	0	0	0	0	0	0
611	0	0	300	-300	1	100	1	250	10	0	0	0	0	0	0	0	0	0	0	0
633	0	0	300	-300	1	100	1	250	10	0	0	0	0	0	0	0	0	0	0	0
676	0	0	300	-300	1	100	1	250	10	0	0	0	0	0	0	0	0	0	0	0
699	0	0	300	-300	1	100	1	250	10	0	0	0	0	0	0	0	0	0	0	0
% 737	0	0	300	-300	1	100	1	250	10	0	0	0	0	0	0	0	0	0	0	0
% 886	0	0	300	-300	1	100	1	250	10	0	0	0	0	0	0	0	0	0	0	0
];

%% branch data
%	fbus	tbus	r	x	b	rateA	rateB	rateC	ratio	angle	status	angmin	angmax
mpc.branch = [
1	2	0.033396991	0.048453516	0	250	250	250	0	0	1	-360	360
2	3	0.016671053	0.009096912	0	250	250	250	0	0	1	-360	360
3	4	0.049615506	0.0161696	0	250	250	250	0	0	1	-360	360
4	5	0.014010184	0.042317198	0	250	250	250	0	0	1	-360	360
5	6	0.009012032	0.005588409	0	250	250	250	0	0	1	-360	360
6	7	0.038150054	0.038439169	0	250	250	250	0	0	1	-360	360
7	8	0.020007429	0.030973149	0	250	250	250	0	0	1	-360	360
8	9	0.031489686	0.044543971	0	250	250	250	0	0	1	-360	360
9	10	0.021069563	0.015501162	0	250	250	250	0	0	1	-360	360
10	11	0.044889297	0.040432324	0	250	250	250	0	0	1	-360	360
11	12	0.038431248	0.026118552	0	250	250	250	0	0	1	-360	360
12	13	0.027776129	0.007552827	0	250	250	250	0	0	1	-360	360
13	14	0.035553301	0.005194857	0	250	250	250	0	0	1	-360	360
14	15	0.021390611	0.028324557	0	250	250	250	0	0	1	-360	360
15	16	0.042836834	0.029300959	0	250	250	250	0	0	1	-360	360
15	17	0.037388028	0.049660838	0	250	250	250	0	0	1	-360	360
16	18	0.017596527	0.027339484	0	250	250	250	0	0	1	-360	360
17	19	0.00667852	0.032881564	0	250	250	250	0	0	1	-360	360
18	20	0.034708658	0.021234654	0	250	250	250	0	0	1	-360	360
19	21	0.022783141	0.025838282	0	250	250	250	0	0	1	-360	360
20	22	0.038416495	0.012664544	0	250	250	250	0	0	1	-360	360
21	23	0.040818929	0.016615532	0	250	250	250	0	0	1	-360	360
22	24	0.0179371	0.038417679	0	250	250	250	0	0	1	-360	360
23	25	0.017722199	0.023609957	0	250	250	250	0	0	1	-360	360
24	26	0.024149034	0.047388067	0	250	250	250	0	0	1	-360	360
25	27	0.016533203	0.041575126	0	250	250	250	0	0	1	-360	360
25	28	0.037914351	0.04435093	0	250	250	250	0	0	1	-360	360
26	29	0.011480711	0.043646357	0	250	250	250	0	0	1	-360	360
27	30	0.041352301	0.009236075	0	250	250	250	0	0	1	-360	360
27	31	0.04630105	0.030767251	0	250	250	250	0	0	1	-360	360
28	32	0.006829997	0.022121674	0	250	250	250	0	0	1	-360	360
29	33	0.022066933	0.040537073	0	250	250	250	0	0	1	-360	360
30	34	0.01843797	0.042997958	0	250	250	250	0	0	1	-360	360
31	35	0.045997341	0.028604581	0	250	250	250	0	0	1	-360	360
32	36	0.021814384	0.013045336	0	250	250	250	0	0	1	-360	360
32	37	0.02209006	0.03365796	0	250	250	250	0	0	1	-360	360
33	38	0.026551358	0.006991772	0	250	250	250	0	0	1	-360	360
35	39	0.028841019	0.017663272	0	250	250	250	0	0	1	-360	360
36	40	0.030662602	0.022308985	0	250	250	250	0	0	1	-360	360
36	41	0.007262189	0.041288411	0	250	250	250	0	0	1	-360	360
37	42	0.020819032	0.006257314	0	250	250	250	0	0	1	-360	360
37	43	0.046838355	0.007095088	0	250	250	250	0	0	1	-360	360
38	44	0.023845223	0.020630187	0	250	250	250	0	0	1	-360	360
39	45	0.015867278	0.022295054	0	250	250	250	0	0	1	-360	360
40	46	0.026286005	0.005788016	0	250	250	250	0	0	1	-360	360
41	47	0.024223869	0.023815673	0	250	250	250	0	0	1	-360	360
42	48	0.035360959	0.027126497	0	250	250	250	0	0	1	-360	360
43	49	0.04186353	0.036012525	0	250	250	250	0	0	1	-360	360
44	50	0.01568926	0.030580467	0	250	250	250	0	0	1	-360	360
45	51	0.033349139	0.039143171	0	250	250	250	0	0	1	-360	360
46	52	0.025396911	0.00650802	0	250	250	250	0	0	1	-360	360
48	53	0.037106015	0.044830605	0	250	250	250	0	0	1	-360	360
48	54	0.045743126	0.019448374	0	250	250	250	0	0	1	-360	360
49	55	0.008684399	0.011502175	0	250	250	250	0	0	1	-360	360
50	56	0.0126178	0.011178146	0	250	250	250	0	0	1	-360	360
51	57	0.029310601	0.037575401	0	250	250	250	0	0	1	-360	360
52	58	0.006561219	0.028138664	0	250	250	250	0	0	1	-360	360
53	59	0.016865848	0.007705897	0	250	250	250	0	0	1	-360	360
54	60	0.034714192	0.006290455	0	250	250	250	0	0	1	-360	360
55	61	0.038179734	0.02252942	0	250	250	250	0	0	1	-360	360
56	62	0.03359008	0.013040594	0	250	250	250	0	0	1	-360	360
57	63	0.041630618	0.024947907	0	250	250	250	0	0	1	-360	360
58	64	0.014374635	0.025444948	0	250	250	250	0	0	1	-360	360
59	65	0.017625294	0.047764148	0	250	250	250	0	0	1	-360	360
59	66	0.049406856	0.014047885	0	250	250	250	0	0	1	-360	360
60	67	0.010147041	0.041085971	0	250	250	250	0	0	1	-360	360
61	68	0.046254504	0.010454612	0	250	250	250	0	0	1	-360	360
62	69	0.034366189	0.022425982	0	250	250	250	0	0	1	-360	360
63	70	0.005076556	0.043608675	0	250	250	250	0	0	1	-360	360
64	71	0.030686988	0.0304249	0	250	250	250	0	0	1	-360	360
65	72	0.035364123	0.035546748	0	250	250	250	0	0	1	-360	360
66	73	0.009158436	0.015473412	0	250	250	250	0	0	1	-360	360
66	74	0.032249172	0.020021563	0	250	250	250	0	0	1	-360	360
67	75	0.018741628	0.026683426	0	250	250	250	0	0	1	-360	360
68	76	0.029230632	0.035059641	0	250	250	250	0	0	1	-360	360
69	77	0.017785962	0.022135434	0	250	250	250	0	0	1	-360	360
71	78	0.012005296	0.020860262	0	250	250	250	0	0	1	-360	360
72	79	0.021388495	0.032553987	0	250	250	250	0	0	1	-360	360
75	80	0.019180807	0.027037992	0	250	250	250	0	0	1	-360	360
76	81	0.042150047	0.030995278	0	250	250	250	0	0	1	-360	360
77	82	0.035033245	0.02382957	0	250	250	250	0	0	1	-360	360
78	83	0.007936252	0.01787921	0	250	250	250	0	0	1	-360	360
79	84	0.022023524	0.03485677	0	250	250	250	0	0	1	-360	360
80	85	0.045369074	0.006667553	0	250	250	250	0	0	1	-360	360
81	86	0.028832859	0.019533276	0	250	250	250	0	0	1	-360	360
82	87	0.038480852	0.022329241	0	250	250	250	0	0	1	-360	360
84	88	0.025533362	0.044498348	0	250	250	250	0	0	1	-360	360
85	89	0.038734695	0.038343168	0	250	250	250	0	0	1	-360	360
86	90	0.019540682	0.0113064	0	250	250	250	0	0	1	-360	360
87	91	0.017689446	0.043128874	0	250	250	250	0	0	1	-360	360
88	92	0.011144157	0.042899372	0	250	250	250	0	0	1	-360	360
90	93	0.042967124	0.033667304	0	250	250	250	0	0	1	-360	360
91	94	0.039727682	0.007247908	0	250	250	250	0	0	1	-360	360
92	95	0.041134402	0.028005194	0	250	250	250	0	0	1	-360	360
93	96	0.014138176	0.01021935	0	250	250	250	0	0	1	-360	360
94	97	0.041751513	0.024590166	0	250	250	250	0	0	1	-360	360
95	98	0.034487832	0.005777056	0	250	250	250	0	0	1	-360	360
96	99	0.035268489	0.019787279	0	250	250	250	0	0	1	-360	360
97	100	0.029396742	0.022075063	0	250	250	250	0	0	1	-360	360
98	101	0.04450931	0.04800018	0	250	250	250	0	0	1	-360	360
99	102	0.022210212	0.023114327	0	250	250	250	0	0	1	-360	360
100	103	0.017769984	0.035004288	0	250	250	250	0	0	1	-360	360
101	104	0.025865835	0.033639197	0	250	250	250	0	0	1	-360	360
101	105	0.007717961	0.024232015	0	250	250	250	0	0	1	-360	360
102	106	0.031149668	0.046861797	0	250	250	250	0	0	1	-360	360
104	107	0.039590158	0.045661953	0	250	250	250	0	0	1	-360	360
105	108	0.027360997	0.039002675	0	250	250	250	0	0	1	-360	360
106	109	0.040797815	0.03069628	0	250	250	250	0	0	1	-360	360
107	110	0.017763125	0.035060722	0	250	250	250	0	0	1	-360	360
108	111	0.041013987	0.033102396	0	250	250	250	0	0	1	-360	360
109	112	0.036075102	0.029232275	0	250	250	250	0	0	1	-360	360
110	113	0.009017708	0.006356941	0	250	250	250	0	0	1	-360	360
111	114	0.035469417	0.010617587	0	250	250	250	0	0	1	-360	360
112	115	0.037587483	0.017821708	0	250	250	250	0	0	1	-360	360
113	116	0.041981083	0.01415168	0	250	250	250	0	0	1	-360	360
114	117	0.031520208	0.023853121	0	250	250	250	0	0	1	-360	360
114	118	0.013275797	0.038451594	0	250	250	250	0	0	1	-360	360
115	119	0.044284548	0.017146326	0	250	250	250	0	0	1	-360	360
116	120	0.019450355	0.037715554	0	250	250	250	0	0	1	-360	360
117	121	0.027344618	0.007646097	0	250	250	250	0	0	1	-360	360
117	122	0.01760583	0.039687295	0	250	250	250	0	0	1	-360	360
118	123	0.028999301	0.006830796	0	250	250	250	0	0	1	-360	360
119	124	0.046228927	0.03649511	0	250	250	250	0	0	1	-360	360
120	125	0.009636921	0.037926286	0	250	250	250	0	0	1	-360	360
121	126	0.033491961	0.024806836	0	250	250	250	0	0	1	-360	360
122	127	0.019562231	0.015433647	0	250	250	250	0	0	1	-360	360
123	128	0.023908935	0.034733229	0	250	250	250	0	0	1	-360	360
124	129	0.040663459	0.015379097	0	250	250	250	0	0	1	-360	360
125	130	0.021456758	0.015258807	0	250	250	250	0	0	1	-360	360
126	131	0.045759299	0.021161431	0	250	250	250	0	0	1	-360	360
127	132	0.007679781	0.046020113	0	250	250	250	0	0	1	-360	360
127	133	0.008504998	0.049720063	0	250	250	250	0	0	1	-360	360
128	134	0.038002419	0.02722596	0	250	250	250	0	0	1	-360	360
129	135	0.021055098	0.032261214	0	250	250	250	0	0	1	-360	360
130	136	0.031671678	0.026000242	0	250	250	250	0	0	1	-360	360
131	137	0.049616417	0.043555659	0	250	250	250	0	0	1	-360	360
132	138	0.007955405	0.040795935	0	250	250	250	0	0	1	-360	360
133	139	0.047513103	0.019145962	0	250	250	250	0	0	1	-360	360
134	140	0.016959879	0.032014868	0	250	250	250	0	0	1	-360	360
135	141	0.017783329	0.031778676	0	250	250	250	0	0	1	-360	360
136	142	0.028847373	0.049487885	0	250	250	250	0	0	1	-360	360
137	143	0.034503053	0.046691637	0	250	250	250	0	0	1	-360	360
138	144	0.042153741	0.041220254	0	250	250	250	0	0	1	-360	360
139	145	0.01147437	0.014458696	0	250	250	250	0	0	1	-360	360
140	146	0.046375997	0.035181726	0	250	250	250	0	0	1	-360	360
141	147	0.018535186	0.030992588	0	250	250	250	0	0	1	-360	360
142	148	0.031771961	0.018297823	0	250	250	250	0	0	1	-360	360
143	149	0.037767759	0.039381613	0	250	250	250	0	0	1	-360	360
144	150	0.049003984	0.015366524	0	250	250	250	0	0	1	-360	360
145	151	0.021317283	0.010691193	0	250	250	250	0	0	1	-360	360
145	152	0.005104616	0.027333155	0	250	250	250	0	0	1	-360	360
146	153	0.010610136	0.038193208	0	250	250	250	0	0	1	-360	360
147	154	0.044087958	0.046972752	0	250	250	250	0	0	1	-360	360
148	155	0.012080817	0.031831858	0	250	250	250	0	0	1	-360	360
149	156	0.047930356	0.041052008	0	250	250	250	0	0	1	-360	360
150	157	0.040865993	0.017085096	0	250	250	250	0	0	1	-360	360
151	158	0.011419098	0.012386995	0	250	250	250	0	0	1	-360	360
152	159	0.028789398	0.037319722	0	250	250	250	0	0	1	-360	360
153	160	0.040262718	0.032053078	0	250	250	250	0	0	1	-360	360
154	161	0.021214367	0.010715569	0	250	250	250	0	0	1	-360	360
155	162	0.037391051	0.027996949	0	250	250	250	0	0	1	-360	360
155	163	0.042609427	0.047949803	0	250	250	250	0	0	1	-360	360
156	164	0.048267929	0.039015239	0	250	250	250	0	0	1	-360	360
157	165	0.03243523	0.032948253	0	250	250	250	0	0	1	-360	360
158	166	0.017783554	0.048302893	0	250	250	250	0	0	1	-360	360
159	167	0.034102809	0.046920678	0	250	250	250	0	0	1	-360	360
160	168	0.045926054	0.02998281	0	250	250	250	0	0	1	-360	360
161	169	0.006210174	0.032752415	0	250	250	250	0	0	1	-360	360
162	170	0.020346539	0.040060505	0	250	250	250	0	0	1	-360	360
163	171	0.024903005	0.040244743	0	250	250	250	0	0	1	-360	360
164	172	0.020584405	0.039961749	0	250	250	250	0	0	1	-360	360
165	173	0.046070187	0.0340766	0	250	250	250	0	0	1	-360	360
166	174	0.033982598	0.020338251	0	250	250	250	0	0	1	-360	360
166	175	0.04413056	0.022169357	0	250	250	250	0	0	1	-360	360
167	176	0.020919848	0.006084419	0	250	250	250	0	0	1	-360	360
168	177	0.030011319	0.042509137	0	250	250	250	0	0	1	-360	360
170	178	0.043385943	0.034903229	0	250	250	250	0	0	1	-360	360
171	179	0.040092478	0.024953467	0	250	250	250	0	0	1	-360	360
171	180	0.022007772	0.021714277	0	250	250	250	0	0	1	-360	360
172	181	0.011772497	0.039418274	0	250	250	250	0	0	1	-360	360
173	182	0.039335236	0.043161491	0	250	250	250	0	0	1	-360	360
174	183	0.030324793	0.028569126	0	250	250	250	0	0	1	-360	360
175	184	0.043188377	0.020127321	0	250	250	250	0	0	1	-360	360
176	185	0.011603862	0.007485722	0	250	250	250	0	0	1	-360	360
177	186	0.039939951	0.049404692	0	250	250	250	0	0	1	-360	360
179	187	0.025663843	0.008879513	0	250	250	250	0	0	1	-360	360
180	188	0.037719464	0.011743365	0	250	250	250	0	0	1	-360	360
181	189	0.015060552	0.005982598	0	250	250	250	0	0	1	-360	360
182	190	0.042734514	0.041137666	0	250	250	250	0	0	1	-360	360
183	191	0.023656716	0.048000695	0	250	250	250	0	0	1	-360	360
183	192	0.047155757	0.047829744	0	250	250	250	0	0	1	-360	360
184	193	0.009625979	0.031603134	0	250	250	250	0	0	1	-360	360
185	194	0.009032393	0.005346362	0	250	250	250	0	0	1	-360	360
186	195	0.012398902	0.012398015	0	250	250	250	0	0	1	-360	360
187	196	0.039224909	0.008023245	0	250	250	250	0	0	1	-360	360
188	197	0.034441238	0.044270819	0	250	250	250	0	0	1	-360	360
188	198	0.019003901	0.023930597	0	250	250	250	0	0	1	-360	360
189	199	0.006701083	0.037929195	0	250	250	250	0	0	1	-360	360
190	200	0.046609053	0.040651166	0	250	250	250	0	0	1	-360	360
191	201	0.010979979	0.047790801	0	250	250	250	0	0	1	-360	360
...
];%%-----  OPF Data  -----%%
%% area data
%	area	refbus


%% generator cost data
%	1	startup	shutdown	n	x1	y1	...	xn	yn
%	2	startup	shutdown	n	c(n-1)	...	c0
mpc.gencost = [
1	1500	0	3	0.11	5	150;    
1	1500	0	3	0.11	5	150;    
1	1500	0	3	0.11	5	150;    
1	1500	0	3	0.11	5	150;    
1	1500	0	3	0.11	5	150;    
1	1500	0	3	0.11	5	150;    
1	1500	0	3	0.11	5	150;    
1	1500	0	3	0.11	5	150;    
1	1500	0	3	0.11	5	150;    
1	1500	0	3	0.11	5	150;    
1	1500	0	3	0.11	5	150;    
1	1500	0	3	0.11	5	150;    
];
